Circuit: * D:\Octave_Project\Stage_res\LTspice_Simulation\Filter_LT.asc

WARNING: Node NC_01 is floating.
WARNING: Node HP_IN is floating.
WARNING: Node PB_IN is floating.
WARNING: Node NC_05 is floating.
WARNING: Node NC_07 is floating.

WARNING: Less than two connections to node NC_01.  This node is used by R1.
WARNING: Less than two connections to node HP_IN.  This node is used by C2.
WARNING: Less than two connections to node PB_IN.  This node is used by C6.
WARNING: Less than two connections to node NC_02.  This node is used by D3.
WARNING: Less than two connections to node NC_03.  This node is used by D4.
WARNING: Less than two connections to node NC_04.  This node is used by D2.
WARNING: Less than two connections to node NC_05.  This node is used by R:X3:1.
WARNING: Less than two connections to node NC_07.  This node is used by C:X6:1.
Direct Newton iteration failed to find .op point.  (Use ".option noopiter" to skip.)
Starting Gmin stepping
Gmin = 10
Gmin = 1.07374
vernier = 0.5
vernier = 0.25
vernier = 0.125
vernier = 0.0625
Gmin = 1.08884
vernier = 0.03125
vernier = 0.015625
Gmin = 1.03922
vernier = 0.0078125
vernier = 0.00390625
Gmin = 1.02313
vernier = 0.00520833
vernier = 0.00260417
Gmin = 1.01616
vernier = 0.00347222
vernier = 0.00173611
vernier = 0.00231481
Gmin = 1.01205
vernier = 0.00115741
vernier = 0.00154321
vernier = 0.000771604
Gmin = 1.0104
vernier = 0.00102881
Gmin = 1.00812
vernier = 0.000514403
vernier = 0.00068587
Gmin = 1.00704
vernier = 0.000514403
vernier = 0.00068587
vernier = 0.000514402
Gmin = 1.00622
Gmin = 0
Gmin stepping failed

Starting source stepping with srcstepmethod=0
Source Step = 3.0303%
Source Step = 33.3333%
Source Step = 63.6364%
Source Step = 93.9394%
Source stepping succeeded in finding the operating point.


Date: Fri Jul 28 13:57:37 2023
Total elapsed time: 16.092 seconds.

tnom = 27
temp = 27
method = modified trap
totiter = 867642
traniter = 860880
tranpoints = 430441
accept = 395563
rejected = 34878
matrix size = 50
fillins = 15
solver = Normal
Thread vector: 11.4/6.5[4] 3.8/2.5[4] 2.6/2.8[1] 0.3/0.8[1]  2592/500
Matrix Compiler1: 2.84 KB object code size  1.0/0.6/[0.4]
Matrix Compiler2: 4.20 KB object code size  0.8/1.1/[0.5]

